* NGSPICE file created from user_proj_example.ext - technology: sky130A

* Black-box entry subcircuit for sky130_fd_sc_ls__decap_8 abstract view
.subckt sky130_fd_sc_ls__decap_8 VGND VNB VPB VPWR
.ends

* Black-box entry subcircuit for sky130_fd_sc_ls__fill_1 abstract view
.subckt sky130_fd_sc_ls__fill_1 VGND VNB VPB VPWR
.ends

* Black-box entry subcircuit for sky130_fd_sc_ls__fill_diode_2 abstract view
.subckt sky130_fd_sc_ls__fill_diode_2 VGND VNB VPB VPWR
.ends

* Black-box entry subcircuit for sky130_fd_sc_ls__decap_4 abstract view
.subckt sky130_fd_sc_ls__decap_4 VGND VNB VPB VPWR
.ends

* Black-box entry subcircuit for sky130_fd_sc_ls__diode_2 abstract view
.subckt sky130_fd_sc_ls__diode_2 DIODE VGND VNB VPB VPWR
.ends

* Black-box entry subcircuit for sky130_fd_sc_ls__clkbuf_2 abstract view
.subckt sky130_fd_sc_ls__clkbuf_2 A VGND VNB VPB VPWR X
.ends

* Black-box entry subcircuit for sky130_fd_sc_ls__tapvpwrvgnd_1 abstract view
.subckt sky130_fd_sc_ls__tapvpwrvgnd_1 VGND VPWR
.ends

* Black-box entry subcircuit for sky130_fd_sc_ls__conb_1 abstract view
.subckt sky130_fd_sc_ls__conb_1 VGND VNB VPB VPWR HI LO
.ends

* Black-box entry subcircuit for sky130_fd_sc_ls__clkbuf_1 abstract view
.subckt sky130_fd_sc_ls__clkbuf_1 A VGND VNB VPB VPWR X
.ends

* Black-box entry subcircuit for NAND2X1 abstract view
.subckt NAND2X1 vdd gnd Y B A
.ends

* Black-box entry subcircuit for AOI21X1 abstract view
.subckt AOI21X1 vdd gnd Y C B A
.ends

* Black-box entry subcircuit for XOR2X1 abstract view
.subckt XOR2X1 vdd gnd Y A B
.ends

* Black-box entry subcircuit for INVX1 abstract view
.subckt INVX1 vdd gnd Y A
.ends

* Black-box entry subcircuit for INVX2 abstract view
.subckt INVX2 vdd gnd Y A
.ends

* Black-box entry subcircuit for INVX4 abstract view
.subckt INVX4 vdd gnd Y A
.ends

* Black-box entry subcircuit for OR2X1 abstract view
.subckt OR2X1 vdd gnd Y B A
.ends

* Black-box entry subcircuit for OR2X2 abstract view
.subckt OR2X2 vdd gnd Y A B
.ends

* Black-box entry subcircuit for sky130_fd_sc_ls__buf_2 abstract view
.subckt sky130_fd_sc_ls__buf_2 A VGND VNB VPB VPWR X
.ends

* Black-box entry subcircuit for BUFX2 abstract view
.subckt BUFX2 vdd gnd Y A
.ends

* Black-box entry subcircuit for NAND3X1 abstract view
.subckt NAND3X1 vdd gnd Y A C B
.ends

* Black-box entry subcircuit for INV abstract view
.subckt INV vdd gnd Y A
.ends

* Black-box entry subcircuit for sky130_fd_sc_ls__clkbuf_4 abstract view
.subckt sky130_fd_sc_ls__clkbuf_4 A VGND VNB VPB VPWR X
.ends

* Black-box entry subcircuit for MUX2X1 abstract view
.subckt MUX2X1 vdd gnd Y A B S
.ends

* Black-box entry subcircuit for AND2X1 abstract view
.subckt AND2X1 vdd gnd Y A B
.ends

* Black-box entry subcircuit for AND2X2 abstract view
.subckt AND2X2 vdd gnd Y A B
.ends

.subckt user_proj_example io_in[0] io_in[10] io_in[11] io_in[12] io_in[13] io_in[14]
+ io_in[15] io_in[16] io_in[17] io_in[18] io_in[19] io_in[1] io_in[20] io_in[21] io_in[22]
+ io_in[23] io_in[24] io_in[25] io_in[26] io_in[27] io_in[28] io_in[29] io_in[2] io_in[30]
+ io_in[31] io_in[32] io_in[33] io_in[34] io_in[35] io_in[36] io_in[37] io_in[3] io_in[4]
+ io_in[5] io_in[6] io_in[7] io_in[8] io_in[9] io_oeb[0] io_oeb[10] io_oeb[11] io_oeb[12]
+ io_oeb[13] io_oeb[14] io_oeb[15] io_oeb[16] io_oeb[17] io_oeb[18] io_oeb[19] io_oeb[1]
+ io_oeb[20] io_oeb[21] io_oeb[22] io_oeb[23] io_oeb[24] io_oeb[25] io_oeb[26] io_oeb[27]
+ io_oeb[28] io_oeb[29] io_oeb[2] io_oeb[30] io_oeb[31] io_oeb[32] io_oeb[33] io_oeb[34]
+ io_oeb[35] io_oeb[36] io_oeb[37] io_oeb[3] io_oeb[4] io_oeb[5] io_oeb[6] io_oeb[7]
+ io_oeb[8] io_oeb[9] io_out[0] io_out[10] io_out[11] io_out[12] io_out[13] io_out[14]
+ io_out[15] io_out[16] io_out[17] io_out[18] io_out[19] io_out[1] io_out[20] io_out[21]
+ io_out[22] io_out[23] io_out[24] io_out[25] io_out[26] io_out[27] io_out[28] io_out[29]
+ io_out[2] io_out[30] io_out[31] io_out[32] io_out[33] io_out[34] io_out[35] io_out[36]
+ io_out[37] io_out[3] io_out[4] io_out[5] io_out[6] io_out[7] io_out[8] io_out[9]
+ la_data_in[0] la_data_in[100] la_data_in[101] la_data_in[102] la_data_in[103] la_data_in[104]
+ la_data_in[105] la_data_in[106] la_data_in[107] la_data_in[108] la_data_in[109]
+ la_data_in[10] la_data_in[110] la_data_in[111] la_data_in[112] la_data_in[113] la_data_in[114]
+ la_data_in[115] la_data_in[116] la_data_in[117] la_data_in[118] la_data_in[119]
+ la_data_in[11] la_data_in[120] la_data_in[121] la_data_in[122] la_data_in[123] la_data_in[124]
+ la_data_in[125] la_data_in[126] la_data_in[127] la_data_in[12] la_data_in[13] la_data_in[14]
+ la_data_in[15] la_data_in[16] la_data_in[17] la_data_in[18] la_data_in[19] la_data_in[1]
+ la_data_in[20] la_data_in[21] la_data_in[22] la_data_in[23] la_data_in[24] la_data_in[25]
+ la_data_in[26] la_data_in[27] la_data_in[28] la_data_in[29] la_data_in[2] la_data_in[30]
+ la_data_in[31] la_data_in[32] la_data_in[33] la_data_in[34] la_data_in[35] la_data_in[36]
+ la_data_in[37] la_data_in[38] la_data_in[39] la_data_in[3] la_data_in[40] la_data_in[41]
+ la_data_in[42] la_data_in[43] la_data_in[44] la_data_in[45] la_data_in[46] la_data_in[47]
+ la_data_in[48] la_data_in[49] la_data_in[4] la_data_in[50] la_data_in[51] la_data_in[52]
+ la_data_in[53] la_data_in[54] la_data_in[55] la_data_in[56] la_data_in[57] la_data_in[58]
+ la_data_in[59] la_data_in[5] la_data_in[60] la_data_in[61] la_data_in[62] la_data_in[63]
+ la_data_in[64] la_data_in[65] la_data_in[66] la_data_in[67] la_data_in[68] la_data_in[69]
+ la_data_in[6] la_data_in[70] la_data_in[71] la_data_in[72] la_data_in[73] la_data_in[74]
+ la_data_in[75] la_data_in[76] la_data_in[77] la_data_in[78] la_data_in[79] la_data_in[7]
+ la_data_in[80] la_data_in[81] la_data_in[82] la_data_in[83] la_data_in[84] la_data_in[85]
+ la_data_in[86] la_data_in[87] la_data_in[88] la_data_in[89] la_data_in[8] la_data_in[90]
+ la_data_in[91] la_data_in[92] la_data_in[93] la_data_in[94] la_data_in[95] la_data_in[96]
+ la_data_in[97] la_data_in[98] la_data_in[99] la_data_in[9] la_data_out[0] la_data_out[100]
+ la_data_out[101] la_data_out[102] la_data_out[103] la_data_out[104] la_data_out[105]
+ la_data_out[106] la_data_out[107] la_data_out[108] la_data_out[109] la_data_out[10]
+ la_data_out[110] la_data_out[111] la_data_out[112] la_data_out[113] la_data_out[114]
+ la_data_out[115] la_data_out[116] la_data_out[117] la_data_out[118] la_data_out[119]
+ la_data_out[11] la_data_out[120] la_data_out[121] la_data_out[122] la_data_out[123]
+ la_data_out[124] la_data_out[125] la_data_out[126] la_data_out[127] la_data_out[12]
+ la_data_out[13] la_data_out[14] la_data_out[15] la_data_out[16] la_data_out[17]
+ la_data_out[18] la_data_out[19] la_data_out[1] la_data_out[20] la_data_out[21] la_data_out[22]
+ la_data_out[23] la_data_out[24] la_data_out[25] la_data_out[26] la_data_out[27]
+ la_data_out[28] la_data_out[29] la_data_out[2] la_data_out[30] la_data_out[31] la_data_out[32]
+ la_data_out[33] la_data_out[34] la_data_out[35] la_data_out[36] la_data_out[37]
+ la_data_out[38] la_data_out[39] la_data_out[3] la_data_out[40] la_data_out[41] la_data_out[42]
+ la_data_out[43] la_data_out[44] la_data_out[45] la_data_out[46] la_data_out[47]
+ la_data_out[48] la_data_out[49] la_data_out[4] la_data_out[50] la_data_out[51] la_data_out[52]
+ la_data_out[53] la_data_out[54] la_data_out[55] la_data_out[56] la_data_out[57]
+ la_data_out[58] la_data_out[59] la_data_out[5] la_data_out[60] la_data_out[61] la_data_out[62]
+ la_data_out[63] la_data_out[64] la_data_out[65] la_data_out[66] la_data_out[67]
+ la_data_out[68] la_data_out[69] la_data_out[6] la_data_out[70] la_data_out[71] la_data_out[72]
+ la_data_out[73] la_data_out[74] la_data_out[75] la_data_out[76] la_data_out[77]
+ la_data_out[78] la_data_out[79] la_data_out[7] la_data_out[80] la_data_out[81] la_data_out[82]
+ la_data_out[83] la_data_out[84] la_data_out[85] la_data_out[86] la_data_out[87]
+ la_data_out[88] la_data_out[89] la_data_out[8] la_data_out[90] la_data_out[91] la_data_out[92]
+ la_data_out[93] la_data_out[94] la_data_out[95] la_data_out[96] la_data_out[97]
+ la_data_out[98] la_data_out[99] la_data_out[9] la_oen[0] la_oen[100] la_oen[101]
+ la_oen[102] la_oen[103] la_oen[104] la_oen[105] la_oen[106] la_oen[107] la_oen[108]
+ la_oen[109] la_oen[10] la_oen[110] la_oen[111] la_oen[112] la_oen[113] la_oen[114]
+ la_oen[115] la_oen[116] la_oen[117] la_oen[118] la_oen[119] la_oen[11] la_oen[120]
+ la_oen[121] la_oen[122] la_oen[123] la_oen[124] la_oen[125] la_oen[126] la_oen[127]
+ la_oen[12] la_oen[13] la_oen[14] la_oen[15] la_oen[16] la_oen[17] la_oen[18] la_oen[19]
+ la_oen[1] la_oen[20] la_oen[21] la_oen[22] la_oen[23] la_oen[24] la_oen[25] la_oen[26]
+ la_oen[27] la_oen[28] la_oen[29] la_oen[2] la_oen[30] la_oen[31] la_oen[32] la_oen[33]
+ la_oen[34] la_oen[35] la_oen[36] la_oen[37] la_oen[38] la_oen[39] la_oen[3] la_oen[40]
+ la_oen[41] la_oen[42] la_oen[43] la_oen[44] la_oen[45] la_oen[46] la_oen[47] la_oen[48]
+ la_oen[49] la_oen[4] la_oen[50] la_oen[51] la_oen[52] la_oen[53] la_oen[54] la_oen[55]
+ la_oen[56] la_oen[57] la_oen[58] la_oen[59] la_oen[5] la_oen[60] la_oen[61] la_oen[62]
+ la_oen[63] la_oen[64] la_oen[65] la_oen[66] la_oen[67] la_oen[68] la_oen[69] la_oen[6]
+ la_oen[70] la_oen[71] la_oen[72] la_oen[73] la_oen[74] la_oen[75] la_oen[76] la_oen[77]
+ la_oen[78] la_oen[79] la_oen[7] la_oen[80] la_oen[81] la_oen[82] la_oen[83] la_oen[84]
+ la_oen[85] la_oen[86] la_oen[87] la_oen[88] la_oen[89] la_oen[8] la_oen[90] la_oen[91]
+ la_oen[92] la_oen[93] la_oen[94] la_oen[95] la_oen[96] la_oen[97] la_oen[98] la_oen[99]
+ la_oen[9] wb_clk_i wb_rst_i wbs_ack_o wbs_adr_i[0] wbs_adr_i[10] wbs_adr_i[11] wbs_adr_i[12]
+ wbs_adr_i[13] wbs_adr_i[14] wbs_adr_i[15] wbs_adr_i[16] wbs_adr_i[17] wbs_adr_i[18]
+ wbs_adr_i[19] wbs_adr_i[1] wbs_adr_i[20] wbs_adr_i[21] wbs_adr_i[22] wbs_adr_i[23]
+ wbs_adr_i[24] wbs_adr_i[25] wbs_adr_i[26] wbs_adr_i[27] wbs_adr_i[28] wbs_adr_i[29]
+ wbs_adr_i[2] wbs_adr_i[30] wbs_adr_i[31] wbs_adr_i[3] wbs_adr_i[4] wbs_adr_i[5]
+ wbs_adr_i[6] wbs_adr_i[7] wbs_adr_i[8] wbs_adr_i[9] wbs_cyc_i wbs_dat_i[0] wbs_dat_i[10]
+ wbs_dat_i[11] wbs_dat_i[12] wbs_dat_i[13] wbs_dat_i[14] wbs_dat_i[15] wbs_dat_i[16]
+ wbs_dat_i[17] wbs_dat_i[18] wbs_dat_i[19] wbs_dat_i[1] wbs_dat_i[20] wbs_dat_i[21]
+ wbs_dat_i[22] wbs_dat_i[23] wbs_dat_i[24] wbs_dat_i[25] wbs_dat_i[26] wbs_dat_i[27]
+ wbs_dat_i[28] wbs_dat_i[29] wbs_dat_i[2] wbs_dat_i[30] wbs_dat_i[31] wbs_dat_i[3]
+ wbs_dat_i[4] wbs_dat_i[5] wbs_dat_i[6] wbs_dat_i[7] wbs_dat_i[8] wbs_dat_i[9] wbs_dat_o[0]
+ wbs_dat_o[10] wbs_dat_o[11] wbs_dat_o[12] wbs_dat_o[13] wbs_dat_o[14] wbs_dat_o[15]
+ wbs_dat_o[16] wbs_dat_o[17] wbs_dat_o[18] wbs_dat_o[19] wbs_dat_o[1] wbs_dat_o[20]
+ wbs_dat_o[21] wbs_dat_o[22] wbs_dat_o[23] wbs_dat_o[24] wbs_dat_o[25] wbs_dat_o[26]
+ wbs_dat_o[27] wbs_dat_o[28] wbs_dat_o[29] wbs_dat_o[2] wbs_dat_o[30] wbs_dat_o[31]
+ wbs_dat_o[3] wbs_dat_o[4] wbs_dat_o[5] wbs_dat_o[6] wbs_dat_o[7] wbs_dat_o[8] wbs_dat_o[9]
+ wbs_sel_i[0] wbs_sel_i[1] wbs_sel_i[2] wbs_sel_i[3] wbs_stb_i wbs_we_i vccd1 vssd1
+ vccd2 vssd2 vdda1 vssa1 vdda2 vssa2 vssa2_uq0 vssa1_uq0 vssd2_uq0 vdda2_uq0 vdda1_uq0
+ vccd2_uq0
XFILLER_67_520 vssd1 vssd1 vccd1 vccd1 sky130_fd_sc_ls__decap_8
XFILLER_67_575 vssd1 vssd1 vccd1 vccd1 sky130_fd_sc_ls__decap_8
XFILLER_54_247 vssd1 vssd1 vccd1 vccd1 sky130_fd_sc_ls__fill_1
XFILLER_22_100 vssd1 vssd1 vccd1 vccd1 sky130_fd_sc_ls__decap_8
XFILLER_52_29 vssd1 vssd1 vccd1 vccd1 sky130_fd_sc_ls__decap_8
XFILLER_22_155 vssd1 vssd1 vccd1 vccd1 sky130_fd_sc_ls__decap_8
XFILLER_10_328 vssd1 vssd1 vccd1 vccd1 sky130_fd_sc_ls__decap_8
XFILLER_77_328 vssd1 vssd1 vccd1 vccd1 sky130_fd_sc_ls__fill_diode_2
XFILLER_77_339 vssd1 vssd1 vccd1 vccd1 sky130_fd_sc_ls__decap_8
XFILLER_58_564 vssd1 vssd1 vccd1 vccd1 sky130_fd_sc_ls__decap_8
XFILLER_18_406 vssd1 vssd1 vccd1 vccd1 sky130_fd_sc_ls__decap_4
XFILLER_73_512 vssd1 vssd1 vccd1 vccd1 sky130_fd_sc_ls__decap_8
XFILLER_45_214 vssd1 vssd1 vccd1 vccd1 sky130_fd_sc_ls__decap_4
XFILLER_73_567 vssd1 vssd1 vccd1 vccd1 sky130_fd_sc_ls__decap_8
XANTENNA_213 _197_/LO vssd1 vssd1 vccd1 vccd1 sky130_fd_sc_ls__diode_2
XANTENNA_202 _065_/LO vssd1 vssd1 vccd1 vccd1 sky130_fd_sc_ls__diode_2
XANTENNA_224 _209_/LO vssd1 vssd1 vccd1 vccd1 sky130_fd_sc_ls__diode_2
XFILLER_45_269 vssd1 vssd1 vccd1 vccd1 sky130_fd_sc_ls__decap_4
XANTENNA_235 _191_/LO vssd1 vssd1 vccd1 vccd1 sky130_fd_sc_ls__diode_2
XFILLER_13_111 vssd1 vssd1 vccd1 vccd1 sky130_fd_sc_ls__decap_8
XFILLER_13_166 vssd1 vssd1 vccd1 vccd1 sky130_fd_sc_ls__decap_8
XFILLER_9_159 vssd1 vssd1 vccd1 vccd1 sky130_fd_sc_ls__decap_4
XFILLER_42_84 vssd1 vssd1 vccd1 vccd1 sky130_fd_sc_ls__decap_8
XFILLER_68_328 vssd1 vssd1 vccd1 vccd1 sky130_fd_sc_ls__decap_8
XFILLER_3_56 vssd1 vssd1 vccd1 vccd1 sky130_fd_sc_ls__decap_4
XFILLER_49_520 vssd1 vssd1 vccd1 vccd1 sky130_fd_sc_ls__decap_8
XFILLER_64_501 vssd1 vssd1 vccd1 vccd1 sky130_fd_sc_ls__decap_8
XFILLER_49_575 vssd1 vssd1 vccd1 vccd1 sky130_fd_sc_ls__fill_1
XFILLER_76_383 vssd1 vssd1 vccd1 vccd1 sky130_fd_sc_ls__decap_8
XFILLER_64_556 vssd1 vssd1 vccd1 vccd1 sky130_fd_sc_ls__decap_8
XFILLER_51_206 vssd1 vssd1 vccd1 vccd1 sky130_fd_sc_ls__decap_8
XFILLER_32_453 vssd1 vssd1 vccd1 vccd1 sky130_fd_sc_ls__decap_8
Xoutput401 _220_/LO vssd1 vssd1 vccd1 vccd1 io_oeb[5] sky130_fd_sc_ls__clkbuf_2
XFILLER_8_192 vssd1 vssd1 vccd1 vccd1 sky130_fd_sc_ls__fill_1
Xoutput434 _057_/LO vssd1 vssd1 vccd1 vccd1 io_out[35] sky130_fd_sc_ls__clkbuf_2
Xoutput423 _050_/LO vssd1 vssd1 vccd1 vccd1 io_out[25] sky130_fd_sc_ls__clkbuf_2
Xoutput412 INVX1/Y vssd1 vssd1 vccd1 vccd1 io_out[15] sky130_fd_sc_ls__clkbuf_2
Xoutput456 _168_/LO vssd1 vssd1 vccd1 vccd1 la_data_out[110] sky130_fd_sc_ls__clkbuf_2
Xoutput478 _073_/LO vssd1 vssd1 vccd1 vccd1 la_data_out[15] sky130_fd_sc_ls__clkbuf_2
Xoutput445 _158_/LO vssd1 vssd1 vccd1 vccd1 la_data_out[100] sky130_fd_sc_ls__clkbuf_2
Xoutput467 _178_/LO vssd1 vssd1 vccd1 vccd1 la_data_out[120] sky130_fd_sc_ls__clkbuf_2
XFILLER_59_328 vssd1 vssd1 vccd1 vccd1 sky130_fd_sc_ls__fill_diode_2
Xoutput489 _083_/LO vssd1 vssd1 vccd1 vccd1 la_data_out[25] sky130_fd_sc_ls__clkbuf_2
XFILLER_59_339 vssd1 vssd1 vccd1 vccd1 sky130_fd_sc_ls__decap_8
XFILLER_67_394 vssd1 vssd1 vccd1 vccd1 sky130_fd_sc_ls__decap_8
XFILLER_67_383 vssd1 vssd1 vccd1 vccd1 sky130_fd_sc_ls__fill_diode_2
XFILLER_55_512 vssd1 vssd1 vccd1 vccd1 sky130_fd_sc_ls__decap_8
XFILLER_27_214 vssd1 vssd1 vccd1 vccd1 sky130_fd_sc_ls__decap_4
XFILLER_55_567 vssd1 vssd1 vccd1 vccd1 sky130_fd_sc_ls__decap_8
XFILLER_63_28 vssd1 vssd1 vccd1 vccd1 sky130_fd_sc_ls__decap_8
XFILLER_27_269 vssd1 vssd1 vccd1 vccd1 sky130_fd_sc_ls__decap_4
XPHY_927 vssd1 vccd1 sky130_fd_sc_ls__tapvpwrvgnd_1
XFILLER_70_548 vssd1 vssd1 vccd1 vccd1 sky130_fd_sc_ls__decap_8
XPHY_916 vssd1 vccd1 sky130_fd_sc_ls__tapvpwrvgnd_1
XPHY_905 vssd1 vccd1 sky130_fd_sc_ls__tapvpwrvgnd_1
XPHY_949 vssd1 vccd1 sky130_fd_sc_ls__tapvpwrvgnd_1
XPHY_938 vssd1 vccd1 sky130_fd_sc_ls__tapvpwrvgnd_1
XFILLER_23_486 vssd1 vssd1 vccd1 vccd1 sky130_fd_sc_ls__decap_8
XFILLER_10_136 vssd1 vssd1 vccd1 vccd1 sky130_fd_sc_ls__fill_diode_2
XFILLER_10_147 vssd1 vssd1 vccd1 vccd1 sky130_fd_sc_ls__decap_8
XFILLER_2_357 vssd1 vssd1 vccd1 vccd1 sky130_fd_sc_ls__fill_1
XFILLER_46_501 vssd1 vssd1 vccd1 vccd1 sky130_fd_sc_ls__decap_8
XFILLER_58_383 vssd1 vssd1 vccd1 vccd1 sky130_fd_sc_ls__decap_8
XFILLER_18_225 vssd1 vssd1 vccd1 vccd1 sky130_fd_sc_ls__decap_8
XFILLER_73_331 vssd1 vssd1 vccd1 vccd1 sky130_fd_sc_ls__decap_8
XFILLER_18_247 vssd1 vssd1 vccd1 vccd1 sky130_fd_sc_ls__fill_1
XFILLER_46_556 vssd1 vssd1 vccd1 vccd1 sky130_fd_sc_ls__decap_8
XFILLER_73_386 vssd1 vssd1 vccd1 vccd1 sky130_fd_sc_ls__decap_8
XFILLER_61_504 vssd1 vssd1 vccd1 vccd1 sky130_fd_sc_ls__decap_8
XFILLER_33_206 vssd1 vssd1 vccd1 vccd1 sky130_fd_sc_ls__decap_8
XFILLER_61_559 vssd1 vssd1 vccd1 vccd1 sky130_fd_sc_ls__decap_8
XFILLER_53_72 vssd1 vssd1 vccd1 vccd1 sky130_fd_sc_ls__decap_8
XFILLER_14_453 vssd1 vssd1 vccd1 vccd1 sky130_fd_sc_ls__decap_8
XFILLER_41_261 vssd1 vssd1 vccd1 vccd1 sky130_fd_sc_ls__decap_8
XFILLER_5_151 vssd1 vssd1 vccd1 vccd1 sky130_fd_sc_ls__fill_diode_2
XFILLER_38_4 vssd1 vssd1 vccd1 vccd1 sky130_fd_sc_ls__decap_8
XFILLER_68_136 vssd1 vssd1 vccd1 vccd1 sky130_fd_sc_ls__fill_diode_2
XFILLER_68_147 vssd1 vssd1 vccd1 vccd1 sky130_fd_sc_ls__decap_8
XFILLER_37_512 vssd1 vssd1 vccd1 vccd1 sky130_fd_sc_ls__decap_8
XFILLER_49_383 vssd1 vssd1 vccd1 vccd1 sky130_fd_sc_ls__fill_diode_2
XFILLER_76_191 vssd1 vssd1 vccd1 vccd1 sky130_fd_sc_ls__fill_diode_2
XFILLER_64_320 vssd1 vssd1 vccd1 vccd1 sky130_fd_sc_ls__decap_8
XFILLER_37_567 vssd1 vssd1 vccd1 vccd1 sky130_fd_sc_ls__decap_4
XFILLER_49_394 vssd1 vssd1 vccd1 vccd1 sky130_fd_sc_ls__decap_8
XFILLER_64_375 vssd1 vssd1 vccd1 vccd1 sky130_fd_sc_ls__decap_8
XFILLER_52_548 vssd1 vssd1 vccd1 vccd1 sky130_fd_sc_ls__decap_8
XFILLER_74_139 vssd1 vssd1 vccd1 vccd1 sky130_fd_sc_ls__decap_8
XFILLER_28_501 vssd1 vssd1 vccd1 vccd1 sky130_fd_sc_ls__decap_8
XFILLER_55_331 vssd1 vssd1 vccd1 vccd1 sky130_fd_sc_ls__decap_8
XFILLER_28_556 vssd1 vssd1 vccd1 vccd1 sky130_fd_sc_ls__decap_8
XFILLER_70_312 vssd1 vssd1 vccd1 vccd1 sky130_fd_sc_ls__decap_8
XFILLER_70_301 vssd1 vssd1 vccd1 vccd1 sky130_fd_sc_ls__fill_diode_2
XFILLER_55_386 vssd1 vssd1 vccd1 vccd1 sky130_fd_sc_ls__decap_8
XFILLER_15_206 vssd1 vssd1 vccd1 vccd1 sky130_fd_sc_ls__decap_8
XFILLER_43_504 vssd1 vssd1 vccd1 vccd1 sky130_fd_sc_ls__decap_8
XFILLER_43_559 vssd1 vssd1 vccd1 vccd1 sky130_fd_sc_ls__decap_8
XPHY_702 vssd1 vccd1 sky130_fd_sc_ls__tapvpwrvgnd_1
XFILLER_70_367 vssd1 vssd1 vccd1 vccd1 sky130_fd_sc_ls__decap_8
XFILLER_70_356 vssd1 vssd1 vccd1 vccd1 sky130_fd_sc_ls__fill_diode_2
XPHY_735 vssd1 vccd1 sky130_fd_sc_ls__tapvpwrvgnd_1
XPHY_713 vssd1 vccd1 sky130_fd_sc_ls__tapvpwrvgnd_1
XPHY_724 vssd1 vccd1 sky130_fd_sc_ls__tapvpwrvgnd_1
XPHY_768 vssd1 vccd1 sky130_fd_sc_ls__tapvpwrvgnd_1
XPHY_757 vssd1 vccd1 sky130_fd_sc_ls__tapvpwrvgnd_1
XPHY_746 vssd1 vccd1 sky130_fd_sc_ls__tapvpwrvgnd_1
XFILLER_23_20 vssd1 vssd1 vccd1 vccd1 sky130_fd_sc_ls__decap_8
XFILLER_23_261 vssd1 vssd1 vccd1 vccd1 sky130_fd_sc_ls__decap_8
X_200_ vssd1 vssd1 vccd1 vccd1 _200_/HI _200_/LO sky130_fd_sc_ls__conb_1
XPHY_779 vssd1 vccd1 sky130_fd_sc_ls__tapvpwrvgnd_1
X_131_ vssd1 vssd1 vccd1 vccd1 _131_/HI _131_/LO sky130_fd_sc_ls__conb_1
XFILLER_11_434 vssd1 vssd1 vccd1 vccd1 sky130_fd_sc_ls__decap_4
XFILLER_23_64 vssd1 vssd1 vccd1 vccd1 sky130_fd_sc_ls__fill_diode_2
XFILLER_7_449 vssd1 vssd1 vccd1 vccd1 sky130_fd_sc_ls__decap_4
XFILLER_7_438 vssd1 vssd1 vccd1 vccd1 sky130_fd_sc_ls__fill_diode_2
XFILLER_11_489 vssd1 vssd1 vccd1 vccd1 sky130_fd_sc_ls__decap_4
X_062_ vssd1 vssd1 vccd1 vccd1 _062_/HI _062_/LO sky130_fd_sc_ls__conb_1
XFILLER_2_198 vssd1 vssd1 vccd1 vccd1 sky130_fd_sc_ls__fill_1
XFILLER_48_61 vssd1 vssd1 vccd1 vccd1 sky130_fd_sc_ls__decap_8
XFILLER_19_512 vssd1 vssd1 vccd1 vccd1 sky130_fd_sc_ls__decap_8
XFILLER_58_191 vssd1 vssd1 vccd1 vccd1 sky130_fd_sc_ls__fill_diode_2
XFILLER_0_24 vssd1 vssd1 vccd1 vccd1 sky130_fd_sc_ls__decap_4
XFILLER_46_320 vssd1 vssd1 vccd1 vccd1 sky130_fd_sc_ls__decap_8
XFILLER_0_57 vssd1 vssd1 vccd1 vccd1 sky130_fd_sc_ls__decap_4
XFILLER_19_567 vssd1 vssd1 vccd1 vccd1 sky130_fd_sc_ls__decap_8
XFILLER_34_548 vssd1 vssd1 vccd1 vccd1 sky130_fd_sc_ls__decap_8
XFILLER_61_378 vssd1 vssd1 vccd1 vccd1 sky130_fd_sc_ls__decap_4
XFILLER_9_77 vssd1 vssd1 vccd1 vccd1 sky130_fd_sc_ls__decap_8
XFILLER_80_92 vssd1 vssd1 vccd1 vccd1 sky130_fd_sc_ls__fill_diode_2
XFILLER_6_493 vssd1 vssd1 vccd1 vccd1 sky130_fd_sc_ls__decap_4
XFILLER_69_489 vssd1 vssd1 vccd1 vccd1 sky130_fd_sc_ls__decap_4
XFILLER_56_139 vssd1 vssd1 vccd1 vccd1 sky130_fd_sc_ls__decap_8
XFILLER_37_331 vssd1 vssd1 vccd1 vccd1 sky130_fd_sc_ls__decap_8
XFILLER_25_504 vssd1 vssd1 vccd1 vccd1 sky130_fd_sc_ls__decap_8
XFILLER_52_301 vssd1 vssd1 vccd1 vccd1 sky130_fd_sc_ls__fill_diode_2
XFILLER_64_194 vssd1 vssd1 vccd1 vccd1 sky130_fd_sc_ls__decap_8
XFILLER_25_548 vssd1 vssd1 vccd1 vccd1 sky130_fd_sc_ls__fill_diode_2
XFILLER_25_559 vssd1 vssd1 vccd1 vccd1 sky130_fd_sc_ls__decap_8
XFILLER_37_386 vssd1 vssd1 vccd1 vccd1 sky130_fd_sc_ls__decap_8
XFILLER_52_312 vssd1 vssd1 vccd1 vccd1 sky130_fd_sc_ls__decap_8
XFILLER_52_356 vssd1 vssd1 vccd1 vccd1 sky130_fd_sc_ls__fill_diode_2
XFILLER_52_367 vssd1 vssd1 vccd1 vccd1 sky130_fd_sc_ls__decap_8
XFILLER_33_581 vssd1 vssd1 vccd1 vccd1 sky130_fd_sc_ls__decap_8
XFILLER_20_242 vssd1 vssd1 vccd1 vccd1 sky130_fd_sc_ls__decap_4
XFILLER_60_29 vssd1 vssd1 vccd1 vccd1 sky130_fd_sc_ls__decap_8
XFILLER_20_297 vssd1 vssd1 vccd1 vccd1 sky130_fd_sc_ls__decap_4
XFILLER_79_209 vssd1 vssd1 vccd1 vccd1 sky130_fd_sc_ls__decap_8
XFILLER_69_49 vssd1 vssd1 vccd1 vccd1 sky130_fd_sc_ls__decap_4
XFILLER_75_426 vssd1 vssd1 vccd1 vccd1 sky130_fd_sc_ls__decap_8
XFILLER_18_20 vssd1 vssd1 vccd1 vccd1 sky130_fd_sc_ls__decap_8
XFILLER_18_53 vssd1 vssd1 vccd1 vccd1 sky130_fd_sc_ls__decap_8
XFILLER_28_320 vssd1 vssd1 vccd1 vccd1 sky130_fd_sc_ls__decap_8
XFILLER_28_375 vssd1 vssd1 vccd1 vccd1 sky130_fd_sc_ls__decap_8
XFILLER_16_548 vssd1 vssd1 vccd1 vccd1 sky130_fd_sc_ls__decap_8
XPHY_510 vssd1 vccd1 sky130_fd_sc_ls__tapvpwrvgnd_1
XPHY_521 vssd1 vccd1 sky130_fd_sc_ls__tapvpwrvgnd_1
XPHY_532 vssd1 vccd1 sky130_fd_sc_ls__tapvpwrvgnd_1
XPHY_543 vssd1 vccd1 sky130_fd_sc_ls__tapvpwrvgnd_1
XPHY_554 vssd1 vccd1 sky130_fd_sc_ls__tapvpwrvgnd_1
XPHY_565 vssd1 vccd1 sky130_fd_sc_ls__tapvpwrvgnd_1
XPHY_576 vssd1 vccd1 sky130_fd_sc_ls__tapvpwrvgnd_1
XPHY_587 vssd1 vccd1 sky130_fd_sc_ls__tapvpwrvgnd_1
XFILLER_7_202 vssd1 vssd1 vccd1 vccd1 sky130_fd_sc_ls__fill_diode_2
XFILLER_11_253 vssd1 vssd1 vccd1 vccd1 sky130_fd_sc_ls__decap_8
XPHY_598 vssd1 vccd1 sky130_fd_sc_ls__tapvpwrvgnd_1
X_114_ vssd1 vssd1 vccd1 vccd1 _114_/HI _114_/LO sky130_fd_sc_ls__conb_1
X_045_ vssd1 vssd1 vccd1 vccd1 _045_/HI _045_/LO sky130_fd_sc_ls__conb_1
XFILLER_50_84 vssd1 vssd1 vccd1 vccd1 sky130_fd_sc_ls__decap_4
XFILLER_3_441 vssd1 vssd1 vccd1 vccd1 sky130_fd_sc_ls__decap_4
XFILLER_78_220 vssd1 vssd1 vccd1 vccd1 sky130_fd_sc_ls__fill_1
XFILLER_3_496 vssd1 vssd1 vccd1 vccd1 sky130_fd_sc_ls__decap_4
XFILLER_78_242 vssd1 vssd1 vccd1 vccd1 sky130_fd_sc_ls__decap_4
XFILLER_78_264 vssd1 vssd1 vccd1 vccd1 sky130_fd_sc_ls__decap_8
XFILLER_19_331 vssd1 vssd1 vccd1 vccd1 sky130_fd_sc_ls__decap_8
XFILLER_38_139 vssd1 vssd1 vccd1 vccd1 sky130_fd_sc_ls__decap_8
XFILLER_81_429 vssd1 vssd1 vccd1 vccd1 sky130_fd_sc_ls__decap_4
XFILLER_81_407 vssd1 vssd1 vccd1 vccd1 sky130_fd_sc_ls__fill_diode_2
XFILLER_19_386 vssd1 vssd1 vccd1 vccd1 sky130_fd_sc_ls__decap_8
XFILLER_34_301 vssd1 vssd1 vccd1 vccd1 sky130_fd_sc_ls__fill_diode_2
XFILLER_34_312 vssd1 vssd1 vccd1 vccd1 sky130_fd_sc_ls__decap_8
XFILLER_46_172 vssd1 vssd1 vccd1 vccd1 sky130_fd_sc_ls__decap_8
XFILLER_46_194 vssd1 vssd1 vccd1 vccd1 sky130_fd_sc_ls__decap_8
XFILLER_34_356 vssd1 vssd1 vccd1 vccd1 sky130_fd_sc_ls__fill_diode_2
XFILLER_34_367 vssd1 vssd1 vccd1 vccd1 sky130_fd_sc_ls__decap_8
XFILLER_61_164 vssd1 vssd1 vccd1 vccd1 sky130_fd_sc_ls__fill_1
XFILLER_15_592 vssd1 vssd1 vccd1 vccd1 sky130_fd_sc_ls__decap_4
XFILLER_30_540 vssd1 vssd1 vccd1 vccd1 sky130_fd_sc_ls__decap_8
XFILLER_30_595 vssd1 vssd1 vccd1 vccd1 sky130_fd_sc_ls__fill_diode_2
XFILLER_69_253 vssd1 vssd1 vccd1 vccd1 sky130_fd_sc_ls__decap_8
XFILLER_57_426 vssd1 vssd1 vccd1 vccd1 sky130_fd_sc_ls__decap_8
XFILLER_65_481 vssd1 vssd1 vccd1 vccd1 sky130_fd_sc_ls__decap_8
XFILLER_25_323 vssd1 vssd1 vccd1 vccd1 sky130_fd_sc_ls__decap_4
XFILLER_71_28 vssd1 vssd1 vccd1 vccd1 sky130_fd_sc_ls__fill_1
XFILLER_40_304 vssd1 vssd1 vccd1 vccd1 sky130_fd_sc_ls__decap_8
XFILLER_40_359 vssd1 vssd1 vccd1 vccd1 sky130_fd_sc_ls__decap_4
XFILLER_21_551 vssd1 vssd1 vccd1 vccd1 sky130_fd_sc_ls__decap_8
XFILLER_21_595 vssd1 vssd1 vccd1 vccd1 sky130_fd_sc_ls__fill_diode_2
XFILLER_4_249 vssd1 vssd1 vccd1 vccd1 sky130_fd_sc_ls__decap_4
Xinput301 wbs_adr_i[13] vssd1 vssd1 vccd1 vccd1 input301/X sky130_fd_sc_ls__clkbuf_1
XFILLER_0_444 vssd1 vssd1 vccd1 vccd1 sky130_fd_sc_ls__decap_4
Xinput312 wbs_adr_i[23] vssd1 vssd1 vccd1 vccd1 input312/X sky130_fd_sc_ls__clkbuf_1
Xinput345 wbs_dat_i[23] vssd1 vssd1 vccd1 vccd1 input345/X sky130_fd_sc_ls__clkbuf_1
Xinput334 wbs_dat_i[13] vssd1 vssd1 vccd1 vccd1 input334/X sky130_fd_sc_ls__clkbuf_1
Xinput323 wbs_adr_i[4] vssd1 vssd1 vccd1 vccd1 input323/X sky130_fd_sc_ls__clkbuf_1
XFILLER_0_477 vssd1 vssd1 vccd1 vccd1 sky130_fd_sc_ls__decap_4
XFILLER_29_52 vssd1 vssd1 vccd1 vccd1 sky130_fd_sc_ls__fill_diode_2
XFILLER_75_245 vssd1 vssd1 vccd1 vccd1 sky130_fd_sc_ls__decap_8
Xinput367 wbs_we_i vssd1 vssd1 vccd1 vccd1 input367/X sky130_fd_sc_ls__clkbuf_1
Xinput356 wbs_dat_i[4] vssd1 vssd1 vccd1 vccd1 input356/X sky130_fd_sc_ls__clkbuf_1
XFILLER_16_301 vssd1 vssd1 vccd1 vccd1 sky130_fd_sc_ls__fill_diode_2
XFILLER_16_312 vssd1 vssd1 vccd1 vccd1 sky130_fd_sc_ls__decap_8
XFILLER_16_356 vssd1 vssd1 vccd1 vccd1 sky130_fd_sc_ls__fill_diode_2
XFILLER_16_367 vssd1 vssd1 vccd1 vccd1 sky130_fd_sc_ls__decap_8
XFILLER_28_194 vssd1 vssd1 vccd1 vccd1 sky130_fd_sc_ls__decap_8
XFILLER_71_473 vssd1 vssd1 vccd1 vccd1 sky130_fd_sc_ls__decap_8
XFILLER_12_540 vssd1 vssd1 vccd1 vccd1 sky130_fd_sc_ls__decap_8
XPHY_340 vssd1 vccd1 sky130_fd_sc_ls__tapvpwrvgnd_1
XPHY_351 vssd1 vccd1 sky130_fd_sc_ls__tapvpwrvgnd_1
XFILLER_8_522 vssd1 vssd1 vccd1 vccd1 sky130_fd_sc_ls__fill_1
XFILLER_8_500 vssd1 vssd1 vccd1 vccd1 sky130_fd_sc_ls__decap_4
XPHY_362 vssd1 vccd1 sky130_fd_sc_ls__tapvpwrvgnd_1
XPHY_373 vssd1 vccd1 sky130_fd_sc_ls__tapvpwrvgnd_1
XPHY_384 vssd1 vccd1 sky130_fd_sc_ls__tapvpwrvgnd_1
XPHY_395 vssd1 vccd1 sky130_fd_sc_ls__tapvpwrvgnd_1
XFILLER_61_72 vssd1 vssd1 vccd1 vccd1 sky130_fd_sc_ls__decap_8
XFILLER_12_595 vssd1 vssd1 vccd1 vccd1 sky130_fd_sc_ls__fill_diode_2
XFILLER_8_566 vssd1 vssd1 vccd1 vccd1 sky130_fd_sc_ls__decap_4
XFILLER_6_12 vssd1 vssd1 vccd1 vccd1 sky130_fd_sc_ls__fill_diode_2
XANTENNA_5 _000_/HI vssd1 vssd1 vccd1 vccd1 sky130_fd_sc_ls__diode_2
XFILLER_6_45 vssd1 vssd1 vccd1 vccd1 sky130_fd_sc_ls__decap_4
X_028_ vssd1 vssd1 vccd1 vccd1 _028_/HI _028_/LO sky130_fd_sc_ls__conb_1
XFILLER_79_551 vssd1 vssd1 vccd1 vccd1 sky130_fd_sc_ls__decap_8
XFILLER_79_595 vssd1 vssd1 vccd1 vccd1 sky130_fd_sc_ls__fill_diode_2
XFILLER_79_584 vssd1 vssd1 vccd1 vccd1 sky130_fd_sc_ls__fill_1
XFILLER_20_4 vssd1 vssd1 vccd1 vccd1 sky130_fd_sc_ls__decap_8
XFILLER_39_426 vssd1 vssd1 vccd1 vccd1 sky130_fd_sc_ls__decap_8
XFILLER_66_234 vssd1 vssd1 vccd1 vccd1 sky130_fd_sc_ls__decap_8
XFILLER_54_407 vssd1 vssd1 vccd1 vccd1 sky130_fd_sc_ls__decap_4
XFILLER_81_215 vssd1 vssd1 vccd1 vccd1 sky130_fd_sc_ls__decap_8
XFILLER_66_289 vssd1 vssd1 vccd1 vccd1 sky130_fd_sc_ls__decap_8
XFILLER_47_481 vssd1 vssd1 vccd1 vccd1 sky130_fd_sc_ls__decap_8
XFILLER_62_473 vssd1 vssd1 vccd1 vccd1 sky130_fd_sc_ls__fill_diode_2
XFILLER_62_462 vssd1 vssd1 vccd1 vccd1 sky130_fd_sc_ls__decap_4
XFILLER_22_304 vssd1 vssd1 vccd1 vccd1 sky130_fd_sc_ls__decap_8
XFILLER_22_359 vssd1 vssd1 vccd1 vccd1 sky130_fd_sc_ls__decap_8
XFILLER_66_39 vssd1 vssd1 vccd1 vccd1 sky130_fd_sc_ls__decap_8
XFILLER_57_245 vssd1 vssd1 vccd1 vccd1 sky130_fd_sc_ls__decap_8
XFILLER_17_109 vssd1 vssd1 vccd1 vccd1 sky130_fd_sc_ls__fill_1
XFILLER_72_226 vssd1 vssd1 vccd1 vccd1 sky130_fd_sc_ls__decap_8
XFILLER_25_142 vssd1 vssd1 vccd1 vccd1 sky130_fd_sc_ls__decap_8
XFILLER_80_270 vssd1 vssd1 vccd1 vccd1 sky130_fd_sc_ls__fill_diode_2
XFILLER_53_473 vssd1 vssd1 vccd1 vccd1 sky130_fd_sc_ls__decap_8
XFILLER_25_164 vssd1 vssd1 vccd1 vccd1 sky130_fd_sc_ls__fill_1
XFILLER_15_54 vssd1 vssd1 vccd1 vccd1 sky130_fd_sc_ls__fill_1
XFILLER_25_186 vssd1 vssd1 vccd1 vccd1 sky130_fd_sc_ls__decap_8
XFILLER_15_98 vssd1 vssd1 vccd1 vccd1 sky130_fd_sc_ls__decap_8
XFILLER_31_20 vssd1 vssd1 vccd1 vccd1 sky130_fd_sc_ls__decap_8
XFILLER_5_536 vssd1 vssd1 vccd1 vccd1 sky130_fd_sc_ls__decap_4
XFILLER_31_64 vssd1 vssd1 vccd1 vccd1 sky130_fd_sc_ls__decap_8
XFILLER_0_241 vssd1 vssd1 vccd1 vccd1 sky130_fd_sc_ls__decap_8
Xinput120 la_data_in[58] vssd1 vssd1 vccd1 vccd1 input120/X sky130_fd_sc_ls__clkbuf_1
XFILLER_76_532 vssd1 vssd1 vccd1 vccd1 sky130_fd_sc_ls__decap_8
XFILLER_76_521 vssd1 vssd1 vccd1 vccd1 sky130_fd_sc_ls__fill_diode_2
Xinput131 la_data_in[68] vssd1 vssd1 vccd1 vccd1 input131/X sky130_fd_sc_ls__clkbuf_1
Xinput142 la_data_in[78] vssd1 vssd1 vccd1 vccd1 input142/X sky130_fd_sc_ls__clkbuf_1
Xinput153 la_data_in[88] vssd1 vssd1 vccd1 vccd1 input153/X sky130_fd_sc_ls__clkbuf_1
XFILLER_48_234 vssd1 vssd1 vccd1 vccd1 sky130_fd_sc_ls__decap_8
XFILLER_76_576 vssd1 vssd1 vccd1 vccd1 sky130_fd_sc_ls__fill_diode_2
Xinput186 la_oen[117] vssd1 vssd1 vccd1 vccd1 input186/X sky130_fd_sc_ls__clkbuf_1
Xinput175 la_oen[107] vssd1 vssd1 vccd1 vccd1 input175/X sky130_fd_sc_ls__clkbuf_1
Xinput164 la_data_in[98] vssd1 vssd1 vccd1 vccd1 input164/X sky130_fd_sc_ls__clkbuf_1
XFILLER_36_407 vssd1 vssd1 vccd1 vccd1 sky130_fd_sc_ls__decap_4
XFILLER_63_237 vssd1 vssd1 vccd1 vccd1 sky130_fd_sc_ls__decap_8
XFILLER_56_61 vssd1 vssd1 vccd1 vccd1 sky130_fd_sc_ls__decap_8
Xinput197 la_oen[127] vssd1 vssd1 vccd1 vccd1 input197/X sky130_fd_sc_ls__clkbuf_1
XFILLER_29_481 vssd1 vssd1 vccd1 vccd1 sky130_fd_sc_ls__decap_8
XFILLER_48_289 vssd1 vssd1 vccd1 vccd1 sky130_fd_sc_ls__decap_8
XFILLER_44_462 vssd1 vssd1 vccd1 vccd1 sky130_fd_sc_ls__decap_4
XFILLER_71_292 vssd1 vssd1 vccd1 vccd1 sky130_fd_sc_ls__decap_8
XPHY_170 vssd1 vccd1 sky130_fd_sc_ls__tapvpwrvgnd_1
XPHY_192 vssd1 vccd1 sky130_fd_sc_ls__tapvpwrvgnd_1
XPHY_181 vssd1 vccd1 sky130_fd_sc_ls__tapvpwrvgnd_1
XFILLER_8_341 vssd1 vssd1 vccd1 vccd1 sky130_fd_sc_ls__fill_1
XFILLER_68_4 vssd1 vssd1 vccd1 vccd1 sky130_fd_sc_ls__decap_8
XFILLER_79_392 vssd1 vssd1 vccd1 vccd1 sky130_fd_sc_ls__fill_1
XFILLER_39_245 vssd1 vssd1 vccd1 vccd1 sky130_fd_sc_ls__decap_8
XFILLER_54_226 vssd1 vssd1 vccd1 vccd1 sky130_fd_sc_ls__decap_8
XFILLER_27_418 vssd1 vssd1 vccd1 vccd1 sky130_fd_sc_ls__decap_8
XFILLER_35_473 vssd1 vssd1 vccd1 vccd1 sky130_fd_sc_ls__decap_8
XFILLER_62_281 vssd1 vssd1 vccd1 vccd1 sky130_fd_sc_ls__decap_8
XFILLER_7_8 vssd1 vssd1 vccd1 vccd1 sky130_fd_sc_ls__decap_4