* NGSPICE file created from user_proj_example.ext - technology: sky130A

* Black-box entry subcircuit for sky130_fd_sc_ls__decap_8 abstract view
.subckt sky130_fd_sc_ls__decap_8 VGND VNB VPB VPWR
.ends

* Black-box entry subcircuit for sky130_fd_sc_ls__tapvpwrvgnd_1 abstract view
.subckt sky130_fd_sc_ls__tapvpwrvgnd_1 VGND VPWR
.ends

* Black-box entry subcircuit for sky130_fd_sc_ls__decap_4 abstract view
.subckt sky130_fd_sc_ls__decap_4 VGND VNB VPB VPWR
.ends

* Black-box entry subcircuit for sky130_fd_sc_ls__fill_1 abstract view
.subckt sky130_fd_sc_ls__fill_1 VGND VNB VPB VPWR
.ends

* Black-box entry subcircuit for sky130_fd_sc_ls__fill_2 abstract view
.subckt sky130_fd_sc_ls__fill_2 VGND VNB VPB VPWR
.ends

* Black-box entry subcircuit for sky130_fd_sc_ls__diode_2 abstract view
.subckt sky130_fd_sc_ls__diode_2 DIODE VGND VNB VPB VPWR
.ends

* Black-box entry subcircuit for sky130_fd_sc_ls__conb_1 abstract view
.subckt sky130_fd_sc_ls__conb_1 VGND VNB VPB VPWR HI LO
.ends

* Black-box entry subcircuit for sky130_fd_sc_ls__clkbuf_4 abstract view
.subckt sky130_fd_sc_ls__clkbuf_4 A VGND VNB VPB VPWR X
.ends

* Black-box entry subcircuit for NAND2X1 abstract view
.subckt NAND2X1 VPWR VGND Y B A
.ends

* Black-box entry subcircuit for XNOR2X1 abstract view
.subckt XNOR2X1 VPWR VGND Y B A
.ends

* Black-box entry subcircuit for AOI21X1 abstract view
.subckt AOI21X1 VPWR VGND Y C B A
.ends

* Black-box entry subcircuit for XOR2X1 abstract view
.subckt XOR2X1 VPWR VGND Y A B
.ends

* Black-box entry subcircuit for INVX1 abstract view
.subckt INVX1 VPWR VGND Y A
.ends

* Black-box entry subcircuit for INVX2 abstract view
.subckt INVX2 VPWR VGND Y A
.ends

* Black-box entry subcircuit for NOR2X1 abstract view
.subckt NOR2X1 VPWR VGND Y B A
.ends

* Black-box entry subcircuit for INVX4 abstract view
.subckt INVX4 VPWR VGND Y A
.ends

* Black-box entry subcircuit for OR2X1 abstract view
.subckt OR2X1 VPWR VGND Y B A
.ends

* Black-box entry subcircuit for OR2X2 abstract view
.subckt OR2X2 VPWR VGND Y A B
.ends

* Black-box entry subcircuit for INVX8 abstract view
.subckt INVX8 VPWR VGND Y A
.ends

* Black-box entry subcircuit for OAI22X1 abstract view
.subckt OAI22X1 VPWR VGND Y C B D A
.ends

* Black-box entry subcircuit for sky130_fd_sc_ls__clkbuf_2 abstract view
.subckt sky130_fd_sc_ls__clkbuf_2 A VGND VNB VPB VPWR X
.ends

* Black-box entry subcircuit for BUFX2 abstract view
.subckt BUFX2 VPWR VGND Y A
.ends

* Black-box entry subcircuit for sky130_fd_sc_ls__buf_2 abstract view
.subckt sky130_fd_sc_ls__buf_2 A VGND VNB VPB VPWR X
.ends

* Black-box entry subcircuit for NAND3X1 abstract view
.subckt NAND3X1 VPWR VGND Y B A C
.ends

* Black-box entry subcircuit for INV abstract view
.subckt INV VPWR VGND Y A
.ends

* Black-box entry subcircuit for BUFX4 abstract view
.subckt BUFX4 VPWR VGND Y A
.ends

* Black-box entry subcircuit for sky130_fd_sc_ls__buf_1 abstract view
.subckt sky130_fd_sc_ls__buf_1 A VGND VNB VPB VPWR X
.ends

* Black-box entry subcircuit for sky130_fd_sc_ls__buf_4 abstract view
.subckt sky130_fd_sc_ls__buf_4 A VGND VNB VPB VPWR X
.ends

* Black-box entry subcircuit for AOI22X1 abstract view
.subckt AOI22X1 VPWR VGND Y B A D C
.ends

* Black-box entry subcircuit for CLKBUF1 abstract view
.subckt CLKBUF1 VPWR VGND Y A
.ends

* Black-box entry subcircuit for MUX2X1 abstract view
.subckt MUX2X1 VPWR VGND Y B S A
.ends

* Black-box entry subcircuit for AND2X1 abstract view
.subckt AND2X1 VPWR VGND Y B A
.ends

* Black-box entry subcircuit for AND2X2 abstract view
.subckt AND2X2 VPWR VGND Y B A
.ends

* Black-box entry subcircuit for OAI21X1 abstract view
.subckt OAI21X1 VPWR VGND Y C A B
.ends

.subckt user_proj_example io_in[0] io_in[10] io_in[11] io_in[12] io_in[13] io_in[14]
+ io_in[15] io_in[16] io_in[17] io_in[18] io_in[19] io_in[1] io_in[20] io_in[21] io_in[22]
+ io_in[23] io_in[24] io_in[25] io_in[26] io_in[27] io_in[28] io_in[29] io_in[2] io_in[30]
+ io_in[31] io_in[32] io_in[33] io_in[34] io_in[35] io_in[36] io_in[37] io_in[3] io_in[4]
+ io_in[5] io_in[6] io_in[7] io_in[8] io_in[9] io_oeb[0] io_oeb[10] io_oeb[11] io_oeb[12]
+ io_oeb[13] io_oeb[14] io_oeb[15] io_oeb[16] io_oeb[17] io_oeb[18] io_oeb[19] io_oeb[1]
+ io_oeb[20] io_oeb[21] io_oeb[22] io_oeb[23] io_oeb[24] io_oeb[25] io_oeb[26] io_oeb[27]
+ io_oeb[28] io_oeb[29] io_oeb[2] io_oeb[30] io_oeb[31] io_oeb[32] io_oeb[33] io_oeb[34]
+ io_oeb[35] io_oeb[36] io_oeb[37] io_oeb[3] io_oeb[4] io_oeb[5] io_oeb[6] io_oeb[7]
+ io_oeb[8] io_oeb[9] io_out[0] io_out[10] io_out[11] io_out[12] io_out[13] io_out[14]
+ io_out[15] io_out[16] io_out[17] io_out[18] io_out[19] io_out[1] io_out[20] io_out[21]
+ io_out[22] io_out[23] io_out[24] io_out[25] io_out[26] io_out[27] io_out[28] io_out[29]
+ io_out[2] io_out[30] io_out[31] io_out[32] io_out[33] io_out[34] io_out[35] io_out[36]
+ io_out[37] io_out[3] io_out[4] io_out[5] io_out[6] io_out[7] io_out[8] io_out[9]
+ irq[0] irq[1] irq[2] la_data_in[0] la_data_in[100] la_data_in[101] la_data_in[102]
+ la_data_in[103] la_data_in[104] la_data_in[105] la_data_in[106] la_data_in[107]
+ la_data_in[108] la_data_in[109] la_data_in[10] la_data_in[110] la_data_in[111] la_data_in[112]
+ la_data_in[113] la_data_in[114] la_data_in[115] la_data_in[116] la_data_in[117]
+ la_data_in[118] la_data_in[119] la_data_in[11] la_data_in[120] la_data_in[121] la_data_in[122]
+ la_data_in[123] la_data_in[124] la_data_in[125] la_data_in[126] la_data_in[127]
+ la_data_in[12] la_data_in[13] la_data_in[14] la_data_in[15] la_data_in[16] la_data_in[17]
+ la_data_in[18] la_data_in[19] la_data_in[1] la_data_in[20] la_data_in[21] la_data_in[22]
+ la_data_in[23] la_data_in[24] la_data_in[25] la_data_in[26] la_data_in[27] la_data_in[28]
+ la_data_in[29] la_data_in[2] la_data_in[30] la_data_in[31] la_data_in[32] la_data_in[33]
+ la_data_in[34] la_data_in[35] la_data_in[36] la_data_in[37] la_data_in[38] la_data_in[39]
+ la_data_in[3] la_data_in[40] la_data_in[41] la_data_in[42] la_data_in[43] la_data_in[44]
+ la_data_in[45] la_data_in[46] la_data_in[47] la_data_in[48] la_data_in[49] la_data_in[4]
+ la_data_in[50] la_data_in[51] la_data_in[52] la_data_in[53] la_data_in[54] la_data_in[55]
+ la_data_in[56] la_data_in[57] la_data_in[58] la_data_in[59] la_data_in[5] la_data_in[60]
+ la_data_in[61] la_data_in[62] la_data_in[63] la_data_in[64] la_data_in[65] la_data_in[66]
+ la_data_in[67] la_data_in[68] la_data_in[69] la_data_in[6] la_data_in[70] la_data_in[71]
+ la_data_in[72] la_data_in[73] la_data_in[74] la_data_in[75] la_data_in[76] la_data_in[77]
+ la_data_in[78] la_data_in[79] la_data_in[7] la_data_in[80] la_data_in[81] la_data_in[82]
+ la_data_in[83] la_data_in[84] la_data_in[85] la_data_in[86] la_data_in[87] la_data_in[88]
+ la_data_in[89] la_data_in[8] la_data_in[90] la_data_in[91] la_data_in[92] la_data_in[93]
+ la_data_in[94] la_data_in[95] la_data_in[96] la_data_in[97] la_data_in[98] la_data_in[99]
+ la_data_in[9] la_data_out[0] la_data_out[100] la_data_out[101] la_data_out[102]
+ la_data_out[103] la_data_out[104] la_data_out[105] la_data_out[106] la_data_out[107]
+ la_data_out[108] la_data_out[109] la_data_out[10] la_data_out[110] la_data_out[111]
+ la_data_out[112] la_data_out[113] la_data_out[114] la_data_out[115] la_data_out[116]
+ la_data_out[117] la_data_out[118] la_data_out[119] la_data_out[11] la_data_out[120]
+ la_data_out[121] la_data_out[122] la_data_out[123] la_data_out[124] la_data_out[125]
+ la_data_out[126] la_data_out[127] la_data_out[12] la_data_out[13] la_data_out[14]
+ la_data_out[15] la_data_out[16] la_data_out[17] la_data_out[18] la_data_out[19]
+ la_data_out[1] la_data_out[20] la_data_out[21] la_data_out[22] la_data_out[23] la_data_out[24]
+ la_data_out[25] la_data_out[26] la_data_out[27] la_data_out[28] la_data_out[29]
+ la_data_out[2] la_data_out[30] la_data_out[31] la_data_out[32] la_data_out[33] la_data_out[34]
+ la_data_out[35] la_data_out[36] la_data_out[37] la_data_out[38] la_data_out[39]
+ la_data_out[3] la_data_out[40] la_data_out[41] la_data_out[42] la_data_out[43] la_data_out[44]
+ la_data_out[45] la_data_out[46] la_data_out[47] la_data_out[48] la_data_out[49]
+ la_data_out[4] la_data_out[50] la_data_out[51] la_data_out[52] la_data_out[53] la_data_out[54]
+ la_data_out[55] la_data_out[56] la_data_out[57] la_data_out[58] la_data_out[59]
+ la_data_out[5] la_data_out[60] la_data_out[61] la_data_out[62] la_data_out[63] la_data_out[64]
+ la_data_out[65] la_data_out[66] la_data_out[67] la_data_out[68] la_data_out[69]
+ la_data_out[6] la_data_out[70] la_data_out[71] la_data_out[72] la_data_out[73] la_data_out[74]
+ la_data_out[75] la_data_out[76] la_data_out[77] la_data_out[78] la_data_out[79]
+ la_data_out[7] la_data_out[80] la_data_out[81] la_data_out[82] la_data_out[83] la_data_out[84]
+ la_data_out[85] la_data_out[86] la_data_out[87] la_data_out[88] la_data_out[89]
+ la_data_out[8] la_data_out[90] la_data_out[91] la_data_out[92] la_data_out[93] la_data_out[94]
+ la_data_out[95] la_data_out[96] la_data_out[97] la_data_out[98] la_data_out[99]
+ la_data_out[9] la_oenb[0] la_oenb[100] la_oenb[101] la_oenb[102] la_oenb[103] la_oenb[104]
+ la_oenb[105] la_oenb[106] la_oenb[107] la_oenb[108] la_oenb[109] la_oenb[10] la_oenb[110]
+ la_oenb[111] la_oenb[112] la_oenb[113] la_oenb[114] la_oenb[115] la_oenb[116] la_oenb[117]
+ la_oenb[118] la_oenb[119] la_oenb[11] la_oenb[120] la_oenb[121] la_oenb[122] la_oenb[123]
+ la_oenb[124] la_oenb[125] la_oenb[126] la_oenb[127] la_oenb[12] la_oenb[13] la_oenb[14]
+ la_oenb[15] la_oenb[16] la_oenb[17] la_oenb[18] la_oenb[19] la_oenb[1] la_oenb[20]
+ la_oenb[21] la_oenb[22] la_oenb[23] la_oenb[24] la_oenb[25] la_oenb[26] la_oenb[27]
+ la_oenb[28] la_oenb[29] la_oenb[2] la_oenb[30] la_oenb[31] la_oenb[32] la_oenb[33]
+ la_oenb[34] la_oenb[35] la_oenb[36] la_oenb[37] la_oenb[38] la_oenb[39] la_oenb[3]
+ la_oenb[40] la_oenb[41] la_oenb[42] la_oenb[43] la_oenb[44] la_oenb[45] la_oenb[46]
+ la_oenb[47] la_oenb[48] la_oenb[49] la_oenb[4] la_oenb[50] la_oenb[51] la_oenb[52]
+ la_oenb[53] la_oenb[54] la_oenb[55] la_oenb[56] la_oenb[57] la_oenb[58] la_oenb[59]
+ la_oenb[5] la_oenb[60] la_oenb[61] la_oenb[62] la_oenb[63] la_oenb[64] la_oenb[65]
+ la_oenb[66] la_oenb[67] la_oenb[68] la_oenb[69] la_oenb[6] la_oenb[70] la_oenb[71]
+ la_oenb[72] la_oenb[73] la_oenb[74] la_oenb[75] la_oenb[76] la_oenb[77] la_oenb[78]
+ la_oenb[79] la_oenb[7] la_oenb[80] la_oenb[81] la_oenb[82] la_oenb[83] la_oenb[84]
+ la_oenb[85] la_oenb[86] la_oenb[87] la_oenb[88] la_oenb[89] la_oenb[8] la_oenb[90]
+ la_oenb[91] la_oenb[92] la_oenb[93] la_oenb[94] la_oenb[95] la_oenb[96] la_oenb[97]
+ la_oenb[98] la_oenb[99] la_oenb[9] vccd1 vssd1 wb_clk_i wb_rst_i wbs_ack_o wbs_adr_i[0]
+ wbs_adr_i[10] wbs_adr_i[11] wbs_adr_i[12] wbs_adr_i[13] wbs_adr_i[14] wbs_adr_i[15]
+ wbs_adr_i[16] wbs_adr_i[17] wbs_adr_i[18] wbs_adr_i[19] wbs_adr_i[1] wbs_adr_i[20]
+ wbs_adr_i[21] wbs_adr_i[22] wbs_adr_i[23] wbs_adr_i[24] wbs_adr_i[25] wbs_adr_i[26]
+ wbs_adr_i[27] wbs_adr_i[28] wbs_adr_i[29] wbs_adr_i[2] wbs_adr_i[30] wbs_adr_i[31]
+ wbs_adr_i[3] wbs_adr_i[4] wbs_adr_i[5] wbs_adr_i[6] wbs_adr_i[7] wbs_adr_i[8] wbs_adr_i[9]
+ wbs_cyc_i wbs_dat_i[0] wbs_dat_i[10] wbs_dat_i[11] wbs_dat_i[12] wbs_dat_i[13] wbs_dat_i[14]
+ wbs_dat_i[15] wbs_dat_i[16] wbs_dat_i[17] wbs_dat_i[18] wbs_dat_i[19] wbs_dat_i[1]
+ wbs_dat_i[20] wbs_dat_i[21] wbs_dat_i[22] wbs_dat_i[23] wbs_dat_i[24] wbs_dat_i[25]
+ wbs_dat_i[26] wbs_dat_i[27] wbs_dat_i[28] wbs_dat_i[29] wbs_dat_i[2] wbs_dat_i[30]
+ wbs_dat_i[31] wbs_dat_i[3] wbs_dat_i[4] wbs_dat_i[5] wbs_dat_i[6] wbs_dat_i[7] wbs_dat_i[8]
+ wbs_dat_i[9] wbs_dat_o[0] wbs_dat_o[10] wbs_dat_o[11] wbs_dat_o[12] wbs_dat_o[13]
+ wbs_dat_o[14] wbs_dat_o[15] wbs_dat_o[16] wbs_dat_o[17] wbs_dat_o[18] wbs_dat_o[19]
+ wbs_dat_o[1] wbs_dat_o[20] wbs_dat_o[21] wbs_dat_o[22] wbs_dat_o[23] wbs_dat_o[24]
+ wbs_dat_o[25] wbs_dat_o[26] wbs_dat_o[27] wbs_dat_o[28] wbs_dat_o[29] wbs_dat_o[2]
+ wbs_dat_o[30] wbs_dat_o[31] wbs_dat_o[3] wbs_dat_o[4] wbs_dat_o[5] wbs_dat_o[6]
+ wbs_dat_o[7] wbs_dat_o[8] wbs_dat_o[9] wbs_sel_i[0] wbs_sel_i[1] wbs_sel_i[2] wbs_sel_i[3]
+ wbs_stb_i wbs_we_i
XFILLER_67_531 vssd1 vssd1 vccd1 vccd1 sky130_fd_sc_ls__decap_8
XTAP_188 vssd1 vccd1 sky130_fd_sc_ls__tapvpwrvgnd_1
XTAP_177 vssd1 vccd1 sky130_fd_sc_ls__tapvpwrvgnd_1
XTAP_199 vssd1 vccd1 sky130_fd_sc_ls__tapvpwrvgnd_1
XFILLER_39_211 vssd1 vssd1 vccd1 vccd1 sky130_fd_sc_ls__decap_4
XFILLER_39_233 vssd1 vssd1 vccd1 vccd1 sky130_fd_sc_ls__decap_8
XFILLER_54_214 vssd1 vssd1 vccd1 vccd1 sky130_fd_sc_ls__decap_8
XFILLER_22_100 vssd1 vssd1 vccd1 vccd1 sky130_fd_sc_ls__decap_8
XFILLER_10_306 vssd1 vssd1 vccd1 vccd1 sky130_fd_sc_ls__decap_8
XFILLER_22_144 vssd1 vssd1 vccd1 vccd1 sky130_fd_sc_ls__decap_8
XFILLER_22_188 vssd1 vssd1 vccd1 vccd1 sky130_fd_sc_ls__fill_1
XFILLER_2_538 vssd1 vssd1 vccd1 vccd1 sky130_fd_sc_ls__decap_8
XFILLER_18_406 vssd1 vssd1 vccd1 vccd1 sky130_fd_sc_ls__decap_8
XFILLER_45_203 vssd1 vssd1 vccd1 vccd1 sky130_fd_sc_ls__decap_8
XFILLER_45_225 vssd1 vssd1 vccd1 vccd1 sky130_fd_sc_ls__decap_8
XFILLER_45_269 vssd1 vssd1 vccd1 vccd1 sky130_fd_sc_ls__fill_1
XFILLER_60_206 vssd1 vssd1 vccd1 vccd1 sky130_fd_sc_ls__decap_8
XFILLER_26_52 vssd1 vssd1 vccd1 vccd1 sky130_fd_sc_ls__decap_8
XFILLER_41_431 vssd1 vssd1 vccd1 vccd1 sky130_fd_sc_ls__fill_1
XFILLER_9_159 vssd1 vssd1 vccd1 vccd1 sky130_fd_sc_ls__fill_2
XFILLER_5_365 vssd1 vssd1 vccd1 vccd1 sky130_fd_sc_ls__decap_8
XFILLER_5_387 vssd1 vssd1 vccd1 vccd1 sky130_fd_sc_ls__decap_8
XFILLER_3_12 vssd1 vssd1 vccd1 vccd1 sky130_fd_sc_ls__decap_8
XFILLER_68_306 vssd1 vssd1 vccd1 vccd1 sky130_fd_sc_ls__decap_8
XFILLER_1_593 vssd1 vssd1 vccd1 vccd1 sky130_fd_sc_ls__fill_1
XFILLER_3_67 vssd1 vssd1 vccd1 vccd1 sky130_fd_sc_ls__decap_8
XANTENNA_output56_A NAND2X1/Y vssd1 vssd1 vccd1 vccd1 sky130_fd_sc_ls__diode_2
XFILLER_76_350 vssd1 vssd1 vccd1 vccd1 sky130_fd_sc_ls__fill_1
XFILLER_64_512 vssd1 vssd1 vccd1 vccd1 sky130_fd_sc_ls__fill_1
XFILLER_36_214 vssd1 vssd1 vccd1 vccd1 sky130_fd_sc_ls__decap_8
XFILLER_51_217 vssd1 vssd1 vccd1 vccd1 sky130_fd_sc_ls__decap_8
XFILLER_27_203 vssd1 vssd1 vccd1 vccd1 sky130_fd_sc_ls__decap_8
XFILLER_27_225 vssd1 vssd1 vccd1 vccd1 sky130_fd_sc_ls__decap_8
XFILLER_63_28 vssd1 vssd1 vccd1 vccd1 sky130_fd_sc_ls__decap_8
XFILLER_27_269 vssd1 vssd1 vccd1 vccd1 sky130_fd_sc_ls__fill_1
XFILLER_42_206 vssd1 vssd1 vccd1 vccd1 sky130_fd_sc_ls__decap_8
XFILLER_55_589 vssd1 vssd1 vccd1 vccd1 sky130_fd_sc_ls__decap_4
XFILLER_23_431 vssd1 vssd1 vccd1 vccd1 sky130_fd_sc_ls__fill_1
XFILLER_23_475 vssd1 vssd1 vccd1 vccd1 sky130_fd_sc_ls__decap_8
XFILLER_10_103 vssd1 vssd1 vccd1 vccd1 sky130_fd_sc_ls__decap_4
XFILLER_10_136 vssd1 vssd1 vccd1 vccd1 sky130_fd_sc_ls__decap_8
XFILLER_12_76 vssd1 vssd1 vccd1 vccd1 sky130_fd_sc_ls__decap_4
XFILLER_5_4 vssd1 vssd1 vccd1 vccd1 sky130_fd_sc_ls__decap_8
XFILLER_2_346 vssd1 vssd1 vccd1 vccd1 sky130_fd_sc_ls__decap_4
XFILLER_2_368 vssd1 vssd1 vccd1 vccd1 sky130_fd_sc_ls__decap_8
XFILLER_77_125 vssd1 vssd1 vccd1 vccd1 sky130_fd_sc_ls__decap_8
XFILLER_58_383 vssd1 vssd1 vccd1 vccd1 sky130_fd_sc_ls__decap_8
XFILLER_18_214 vssd1 vssd1 vccd1 vccd1 sky130_fd_sc_ls__decap_8
XFILLER_46_512 vssd1 vssd1 vccd1 vccd1 sky130_fd_sc_ls__fill_1
XFILLER_37_95 vssd1 vssd1 vccd1 vccd1 sky130_fd_sc_ls__fill_2
XFILLER_33_228 vssd1 vssd1 vccd1 vccd1 sky130_fd_sc_ls__decap_8
XANTENNA_AND2X2_A AND2X2/A vssd1 vssd1 vccd1 vccd1 sky130_fd_sc_ls__diode_2
XFILLER_38_4 vssd1 vssd1 vccd1 vccd1 sky130_fd_sc_ls__decap_8
XFILLER_78_80 vssd1 vssd1 vccd1 vccd1 sky130_fd_sc_ls__fill_1
XFILLER_68_136 vssd1 vssd1 vccd1 vccd1 sky130_fd_sc_ls__decap_8
XFILLER_68_114 vssd1 vssd1 vccd1 vccd1 sky130_fd_sc_ls__decap_8
XFILLER_24_206 vssd1 vssd1 vccd1 vccd1 sky130_fd_sc_ls__decap_8
XFILLER_37_589 vssd1 vssd1 vccd1 vccd1 sky130_fd_sc_ls__decap_4
XFILLER_64_397 vssd1 vssd1 vccd1 vccd1 sky130_fd_sc_ls__decap_8
XFILLER_60_592 vssd1 vssd1 vccd1 vccd1 sky130_fd_sc_ls__decap_4
XANTENNA_OAI22X1_A input26/X vssd1 vssd1 vccd1 vccd1 sky130_fd_sc_ls__diode_2
XFILLER_59_103 vssd1 vssd1 vccd1 vccd1 sky130_fd_sc_ls__decap_4
XFILLER_58_28 vssd1 vssd1 vccd1 vccd1 sky130_fd_sc_ls__decap_8
XFILLER_59_125 vssd1 vssd1 vccd1 vccd1 sky130_fd_sc_ls__decap_8
XFILLER_74_106 vssd1 vssd1 vccd1 vccd1 sky130_fd_sc_ls__decap_8
XFILLER_28_512 vssd1 vssd1 vccd1 vccd1 sky130_fd_sc_ls__fill_1
XFILLER_15_217 vssd1 vssd1 vccd1 vccd1 sky130_fd_sc_ls__decap_8
X_200_ vssd1 vssd1 vccd1 vccd1 _200_/HI wbs_dat_o[17] sky130_fd_sc_ls__conb_1
XFILLER_23_20 vssd1 vssd1 vccd1 vccd1 sky130_fd_sc_ls__decap_8
XFILLER_23_261 vssd1 vssd1 vccd1 vccd1 sky130_fd_sc_ls__fill_1
X_131_ vssd1 vssd1 vccd1 vccd1 _131_/HI la_data_out[77] sky130_fd_sc_ls__conb_1
XFILLER_7_449 vssd1 vssd1 vccd1 vccd1 sky130_fd_sc_ls__decap_8
XFILLER_7_427 vssd1 vssd1 vccd1 vccd1 sky130_fd_sc_ls__decap_4
X_062_ vssd1 vssd1 vccd1 vccd1 _062_/HI la_data_out[0] sky130_fd_sc_ls__conb_1
XFILLER_2_154 vssd1 vssd1 vccd1 vccd1 sky130_fd_sc_ls__decap_4
XFILLER_2_176 vssd1 vssd1 vccd1 vccd1 sky130_fd_sc_ls__decap_4
XFILLER_65_117 vssd1 vssd1 vccd1 vccd1 sky130_fd_sc_ls__decap_8
XFILLER_0_24 vssd1 vssd1 vccd1 vccd1 sky130_fd_sc_ls__fill_2
XFILLER_80_109 vssd1 vssd1 vccd1 vccd1 sky130_fd_sc_ls__decap_8
XFILLER_73_161 vssd1 vssd1 vccd1 vccd1 sky130_fd_sc_ls__fill_1
XFILLER_19_589 vssd1 vssd1 vccd1 vccd1 sky130_fd_sc_ls__decap_4
XFILLER_64_82 vssd1 vssd1 vccd1 vccd1 sky130_fd_sc_ls__decap_8
XFILLER_64_60 vssd1 vssd1 vccd1 vccd1 sky130_fd_sc_ls__decap_8
XFILLER_61_323 vssd1 vssd1 vccd1 vccd1 sky130_fd_sc_ls__fill_1
XFILLER_0_79 vssd1 vssd1 vccd1 vccd1 sky130_fd_sc_ls__fill_2
XFILLER_9_44 vssd1 vssd1 vccd1 vccd1 sky130_fd_sc_ls__decap_8
XFILLER_42_592 vssd1 vssd1 vccd1 vccd1 sky130_fd_sc_ls__decap_4
XFILLER_9_55 vssd1 vssd1 vccd1 vccd1 sky130_fd_sc_ls__decap_8
XFILLER_6_460 vssd1 vssd1 vccd1 vccd1 sky130_fd_sc_ls__decap_8
XFILLER_56_106 vssd1 vssd1 vccd1 vccd1 sky130_fd_sc_ls__decap_8
XFILLER_71_109 vssd1 vssd1 vccd1 vccd1 sky130_fd_sc_ls__decap_8
XFILLER_33_581 vssd1 vssd1 vccd1 vccd1 sky130_fd_sc_ls__decap_8
XFILLER_20_242 vssd1 vssd1 vccd1 vccd1 sky130_fd_sc_ls__fill_1
XFILLER_47_117 vssd1 vssd1 vccd1 vccd1 sky130_fd_sc_ls__decap_8
XFILLER_55_161 vssd1 vssd1 vccd1 vccd1 sky130_fd_sc_ls__fill_1
XFILLER_43_323 vssd1 vssd1 vccd1 vccd1 sky130_fd_sc_ls__fill_1
XFILLER_34_52 vssd1 vssd1 vccd1 vccd1 sky130_fd_sc_ls__decap_8
XFILLER_24_592 vssd1 vssd1 vccd1 vccd1 sky130_fd_sc_ls__decap_4
X_114_ vssd1 vssd1 vccd1 vccd1 _114_/HI la_data_out[60] sky130_fd_sc_ls__conb_1
XFILLER_7_257 vssd1 vssd1 vccd1 vccd1 sky130_fd_sc_ls__decap_8
XFILLER_7_279 vssd1 vssd1 vccd1 vccd1 sky130_fd_sc_ls__decap_8
X_045_ vssd1 vssd1 vccd1 vccd1 _045_/HI io_out[13] sky130_fd_sc_ls__conb_1
XFILLER_3_441 vssd1 vssd1 vccd1 vccd1 sky130_fd_sc_ls__decap_8
XTAP_507 vssd1 vccd1 sky130_fd_sc_ls__tapvpwrvgnd_1
XFILLER_59_71 vssd1 vssd1 vccd1 vccd1 sky130_fd_sc_ls__decap_8
XFILLER_3_485 vssd1 vssd1 vccd1 vccd1 sky130_fd_sc_ls__fill_1
XTAP_518 vssd1 vccd1 sky130_fd_sc_ls__tapvpwrvgnd_1
XTAP_529 vssd1 vccd1 sky130_fd_sc_ls__tapvpwrvgnd_1
XFILLER_78_242 vssd1 vssd1 vccd1 vccd1 sky130_fd_sc_ls__fill_1
XFILLER_19_320 vssd1 vssd1 vccd1 vccd1 sky130_fd_sc_ls__decap_4
XFILLER_53_109 vssd1 vssd1 vccd1 vccd1 sky130_fd_sc_ls__decap_8
XFILLER_74_492 vssd1 vssd1 vccd1 vccd1 sky130_fd_sc_ls__decap_8
XFILLER_15_581 vssd1 vssd1 vccd1 vccd1 sky130_fd_sc_ls__decap_8
XFILLER_30_562 vssd1 vssd1 vccd1 vccd1 sky130_fd_sc_ls__decap_4
XFILLER_30_584 vssd1 vssd1 vccd1 vccd1 sky130_fd_sc_ls__decap_8
XFILLER_44_109 vssd1 vssd1 vccd1 vccd1 sky130_fd_sc_ls__decap_4
XFILLER_55_29 vssd1 vssd1 vccd1 vccd1 sky130_fd_sc_ls__decap_8
XFILLER_65_481 vssd1 vssd1 vccd1 vccd1 sky130_fd_sc_ls__decap_4
XFILLER_25_323 vssd1 vssd1 vccd1 vccd1 sky130_fd_sc_ls__fill_1
XFILLER_37_161 vssd1 vssd1 vccd1 vccd1 sky130_fd_sc_ls__fill_1
XFILLER_80_451 vssd1 vssd1 vccd1 vccd1 sky130_fd_sc_ls__decap_8
XFILLER_80_484 vssd1 vssd1 vccd1 vccd1 sky130_fd_sc_ls__decap_4
XFILLER_71_28 vssd1 vssd1 vccd1 vccd1 sky130_fd_sc_ls__decap_8
XFILLER_21_573 vssd1 vssd1 vccd1 vccd1 sky130_fd_sc_ls__decap_8
XFILLER_21_595 vssd1 vssd1 vccd1 vccd1 sky130_fd_sc_ls__fill_2
XFILLER_4_216 vssd1 vssd1 vccd1 vccd1 sky130_fd_sc_ls__decap_8
XFILLER_20_76 vssd1 vssd1 vccd1 vccd1 sky130_fd_sc_ls__decap_4
XFILLER_0_422 vssd1 vssd1 vccd1 vccd1 sky130_fd_sc_ls__decap_8
XFILLER_0_433 vssd1 vssd1 vccd1 vccd1 sky130_fd_sc_ls__decap_8
XFILLER_29_52 vssd1 vssd1 vccd1 vccd1 sky130_fd_sc_ls__fill_2
XFILLER_48_404 vssd1 vssd1 vccd1 vccd1 sky130_fd_sc_ls__fill_1
XFILLER_29_63 vssd1 vssd1 vccd1 vccd1 sky130_fd_sc_ls__decap_8
XANTENNA_input18_A io_in[35] vssd1 vssd1 vccd1 vccd1 sky130_fd_sc_ls__diode_2
XFILLER_35_109 vssd1 vssd1 vccd1 vccd1 sky130_fd_sc_ls__decap_8
XFILLER_43_131 vssd1 vssd1 vccd1 vccd1 sky130_fd_sc_ls__fill_1
XFILLER_71_495 vssd1 vssd1 vccd1 vccd1 sky130_fd_sc_ls__decap_8
XFILLER_71_473 vssd1 vssd1 vccd1 vccd1 sky130_fd_sc_ls__decap_8
XFILLER_45_95 vssd1 vssd1 vccd1 vccd1 sky130_fd_sc_ls__decap_8
XFILLER_12_562 vssd1 vssd1 vccd1 vccd1 sky130_fd_sc_ls__decap_4
XFILLER_8_522 vssd1 vssd1 vccd1 vccd1 sky130_fd_sc_ls__decap_8
XFILLER_8_500 vssd1 vssd1 vccd1 vccd1 sky130_fd_sc_ls__decap_8
XFILLER_61_94 vssd1 vssd1 vccd1 vccd1 sky130_fd_sc_ls__decap_8
XFILLER_12_584 vssd1 vssd1 vccd1 vccd1 sky130_fd_sc_ls__decap_4
XFILLER_8_566 vssd1 vssd1 vccd1 vccd1 sky130_fd_sc_ls__fill_1
XFILLER_6_12 vssd1 vssd1 vccd1 vccd1 sky130_fd_sc_ls__fill_2
X_028_ vssd1 vssd1 vccd1 vccd1 _028_/HI io_oeb[22] sky130_fd_sc_ls__conb_1
XTAP_315 vssd1 vccd1 sky130_fd_sc_ls__tapvpwrvgnd_1
XTAP_304 vssd1 vccd1 sky130_fd_sc_ls__tapvpwrvgnd_1
XFILLER_3_271 vssd1 vssd1 vccd1 vccd1 sky130_fd_sc_ls__decap_8
XTAP_326 vssd1 vccd1 sky130_fd_sc_ls__tapvpwrvgnd_1
XTAP_337 vssd1 vccd1 sky130_fd_sc_ls__tapvpwrvgnd_1
XTAP_348 vssd1 vccd1 sky130_fd_sc_ls__tapvpwrvgnd_1
XFILLER_79_595 vssd1 vssd1 vccd1 vccd1 sky130_fd_sc_ls__fill_2
XTAP_359 vssd1 vccd1 sky130_fd_sc_ls__tapvpwrvgnd_1
XFILLER_20_4 vssd1 vssd1 vccd1 vccd1 sky130_fd_sc_ls__decap_8
XFILLER_26_109 vssd1 vssd1 vccd1 vccd1 sky130_fd_sc_ls__decap_8
XFILLER_19_161 vssd1 vssd1 vccd1 vccd1 sky130_fd_sc_ls__fill_1
XFILLER_19_172 vssd1 vssd1 vccd1 vccd1 sky130_fd_sc_ls__decap_8
XFILLER_47_481 vssd1 vssd1 vccd1 vccd1 sky130_fd_sc_ls__decap_4
XFILLER_62_484 vssd1 vssd1 vccd1 vccd1 sky130_fd_sc_ls__decap_8
XFILLER_34_186 vssd1 vssd1 vccd1 vccd1 sky130_fd_sc_ls__fill_2
XFILLER_30_392 vssd1 vssd1 vccd1 vccd1 sky130_fd_sc_ls__decap_8
XTAP_871 vssd1 vccd1 sky130_fd_sc_ls__tapvpwrvgnd_1
XTAP_860 vssd1 vccd1 sky130_fd_sc_ls__tapvpwrvgnd_1
XFILLER_66_39 vssd1 vssd1 vccd1 vccd1 sky130_fd_sc_ls__decap_8
XTAP_893 vssd1 vccd1 sky130_fd_sc_ls__tapvpwrvgnd_1
XTAP_882 vssd1 vccd1 sky130_fd_sc_ls__tapvpwrvgnd_1
XFILLER_17_109 vssd1 vssd1 vccd1 vccd1 sky130_fd_sc_ls__decap_8
XFILLER_38_492 vssd1 vssd1 vccd1 vccd1 sky130_fd_sc_ls__decap_8
XFILLER_53_473 vssd1 vssd1 vccd1 vccd1 sky130_fd_sc_ls__decap_8
XFILLER_40_134 vssd1 vssd1 vccd1 vccd1 sky130_fd_sc_ls__fill_1
XFILLER_53_495 vssd1 vssd1 vccd1 vccd1 sky130_fd_sc_ls__decap_8
XFILLER_9_319 vssd1 vssd1 vccd1 vccd1 sky130_fd_sc_ls__decap_4
XFILLER_15_98 vssd1 vssd1 vccd1 vccd1 sky130_fd_sc_ls__decap_8
XFILLER_5_503 vssd1 vssd1 vccd1 vccd1 sky130_fd_sc_ls__decap_8
XFILLER_31_20 vssd1 vssd1 vccd1 vccd1 sky130_fd_sc_ls__decap_8
XFILLER_31_97 vssd1 vssd1 vccd1 vccd1 sky130_fd_sc_ls__fill_1
Xoutput53 AND2X1/Y vssd1 vssd1 vccd1 vccd1 io_out[2] sky130_fd_sc_ls__clkbuf_4
Xoutput64 XOR2X1/Y vssd1 vssd1 vccd1 vccd1 la_data_out[27] sky130_fd_sc_ls__clkbuf_4
XFILLER_76_576 vssd1 vssd1 vccd1 vccd1 sky130_fd_sc_ls__decap_8
XFILLER_76_554 vssd1 vssd1 vccd1 vccd1 sky130_fd_sc_ls__decap_8
XFILLER_63_215 vssd1 vssd1 vccd1 vccd1 sky130_fd_sc_ls__fill_1
XFILLER_29_481 vssd1 vssd1 vccd1 vccd1 sky130_fd_sc_ls__decap_4
XFILLER_16_131 vssd1 vssd1 vccd1 vccd1 sky130_fd_sc_ls__decap_4
XFILLER_44_484 vssd1 vssd1 vccd1 vccd1 sky130_fd_sc_ls__decap_8
XFILLER_72_60 vssd1 vssd1 vccd1 vccd1 sky130_fd_sc_ls__decap_8
XFILLER_72_93 vssd1 vssd1 vccd1 vccd1 sky130_fd_sc_ls__decap_8
XFILLER_8_330 vssd1 vssd1 vccd1 vccd1 sky130_fd_sc_ls__decap_8
XFILLER_12_392 vssd1 vssd1 vccd1 vccd1 sky130_fd_sc_ls__decap_8
XFILLER_8_352 vssd1 vssd1 vccd1 vccd1 sky130_fd_sc_ls__decap_8
XFILLER_68_4 vssd1 vssd1 vccd1 vccd1 sky130_fd_sc_ls__decap_8
XTAP_189 vssd1 vccd1 sky130_fd_sc_ls__tapvpwrvgnd_1
XTAP_167 vssd1 vccd1 sky130_fd_sc_ls__tapvpwrvgnd_1
XTAP_178 vssd1 vccd1 sky130_fd_sc_ls__tapvpwrvgnd_1
XFILLER_67_565 vssd1 vssd1 vccd1 vccd1 sky130_fd_sc_ls__decap_8
XFILLER_35_473 vssd1 vssd1 vccd1 vccd1 sky130_fd_sc_ls__decap_8
XFILLER_22_134 vssd1 vssd1 vccd1 vccd1 sky130_fd_sc_ls__fill_1
XFILLER_35_495 vssd1 vssd1 vccd1 vccd1 sky130_fd_sc_ls__decap_8
XFILLER_50_454 vssd1 vssd1 vccd1 vccd1 sky130_fd_sc_ls__decap_4
XFILLER_50_476 vssd1 vssd1 vccd1 vccd1 sky130_fd_sc_ls__decap_8
XFILLER_58_554 vssd1 vssd1 vccd1 vccd1 sky130_fd_sc_ls__decap_8
XTAP_690 vssd1 vccd1 sky130_fd_sc_ls__tapvpwrvgnd_1
XFILLER_73_535 vssd1 vssd1 vccd1 vccd1 sky130_fd_sc_ls__decap_4
XFILLER_58_587 vssd1 vssd1 vccd1 vccd1 sky130_fd_sc_ls__fill_1
XFILLER_45_215 vssd1 vssd1 vccd1 vccd1 sky130_fd_sc_ls__fill_1
XFILLER_73_568 vssd1 vssd1 vccd1 vccd1 sky130_fd_sc_ls__decap_8
XFILLER_26_20 vssd1 vssd1 vccd1 vccd1 sky130_fd_sc_ls__decap_4
XFILLER_81_590 vssd1 vssd1 vccd1 vccd1 sky130_fd_sc_ls__decap_4
XFILLER_26_97 vssd1 vssd1 vccd1 vccd1 sky130_fd_sc_ls__decap_4
XFILLER_26_484 vssd1 vssd1 vccd1 vccd1 sky130_fd_sc_ls__fill_2
XFILLER_13_145 vssd1 vssd1 vccd1 vccd1 sky130_fd_sc_ls__decap_8
XFILLER_9_105 vssd1 vssd1 vccd1 vccd1 sky130_fd_sc_ls__fill_2
XFILLER_41_465 vssd1 vssd1 vccd1 vccd1 sky130_fd_sc_ls__decap_8
XFILLER_9_127 vssd1 vssd1 vccd1 vccd1 sky130_fd_sc_ls__decap_8
XFILLER_41_487 vssd1 vssd1 vccd1 vccd1 sky130_fd_sc_ls__decap_8
XFILLER_42_52 vssd1 vssd1 vccd1 vccd1 sky130_fd_sc_ls__decap_8
XFILLER_5_300 vssd1 vssd1 vccd1 vccd1 sky130_fd_sc_ls__decap_8
XFILLER_5_333 vssd1 vssd1 vccd1 vccd1 sky130_fd_sc_ls__decap_8
XFILLER_5_377 vssd1 vssd1 vccd1 vccd1 sky130_fd_sc_ls__fill_1
XFILLER_67_71 vssd1 vssd1 vccd1 vccd1 sky130_fd_sc_ls__decap_8
XFILLER_49_565 vssd1 vssd1 vccd1 vccd1 sky130_fd_sc_ls__decap_8
XANTENNA_output49_A INV/Y vssd1 vssd1 vccd1 vccd1 sky130_fd_sc_ls__diode_2
XFILLER_76_384 vssd1 vssd1 vccd1 vccd1 sky130_fd_sc_ls__decap_8
XFILLER_64_568 vssd1 vssd1 vccd1 vccd1 sky130_fd_sc_ls__decap_8
XFILLER_64_546 vssd1 vssd1 vccd1 vccd1 sky130_fd_sc_ls__decap_8
XFILLER_17_473 vssd1 vssd1 vccd1 vccd1 sky130_fd_sc_ls__decap_8
XFILLER_17_495 vssd1 vssd1 vccd1 vccd1 sky130_fd_sc_ls__decap_8
XFILLER_44_292 vssd1 vssd1 vccd1 vccd1 sky130_fd_sc_ls__decap_4
XFILLER_32_454 vssd1 vssd1 vccd1 vccd1 sky130_fd_sc_ls__decap_4
XFILLER_32_476 vssd1 vssd1 vccd1 vccd1 sky130_fd_sc_ls__decap_8
XFILLER_8_171 vssd1 vssd1 vccd1 vccd1 sky130_fd_sc_ls__decap_8
XFILLER_67_373 vssd1 vssd1 vccd1 vccd1 sky130_fd_sc_ls__decap_4
XFILLER_27_215 vssd1 vssd1 vccd1 vccd1 sky130_fd_sc_ls__fill_1
XFILLER_55_535 vssd1 vssd1 vccd1 vccd1 sky130_fd_sc_ls__decap_4
XFILLER_67_395 vssd1 vssd1 vccd1 vccd1 sky130_fd_sc_ls__decap_8
XFILLER_55_557 vssd1 vssd1 vccd1 vccd1 sky130_fd_sc_ls__decap_8
XFILLER_70_538 vssd1 vssd1 vccd1 vccd1 sky130_fd_sc_ls__decap_8
XFILLER_10_115 vssd1 vssd1 vccd1 vccd1 sky130_fd_sc_ls__decap_8
XFILLER_23_487 vssd1 vssd1 vccd1 vccd1 sky130_fd_sc_ls__decap_8
XFILLER_50_284 vssd1 vssd1 vccd1 vccd1 sky130_fd_sc_ls__decap_8
XFILLER_6_108 vssd1 vssd1 vccd1 vccd1 sky130_fd_sc_ls__decap_8
XFILLER_12_44 vssd1 vssd1 vccd1 vccd1 sky130_fd_sc_ls__decap_8
XFILLER_2_314 vssd1 vssd1 vccd1 vccd1 sky130_fd_sc_ls__decap_8
XFILLER_37_41 vssd1 vssd1 vccd1 vccd1 sky130_fd_sc_ls__decap_8
XFILLER_37_63 vssd1 vssd1 vccd1 vccd1 sky130_fd_sc_ls__decap_8
XFILLER_46_546 vssd1 vssd1 vccd1 vccd1 sky130_fd_sc_ls__decap_8
XFILLER_46_568 vssd1 vssd1 vccd1 vccd1 sky130_fd_sc_ls__decap_8
XFILLER_73_387 vssd1 vssd1 vccd1 vccd1 sky130_fd_sc_ls__decap_8
XFILLER_73_354 vssd1 vssd1 vccd1 vccd1 sky130_fd_sc_ls__decap_8
XFILLER_61_527 vssd1 vssd1 vccd1 vccd1 sky130_fd_sc_ls__decap_8
XFILLER_61_549 vssd1 vssd1 vccd1 vccd1 sky130_fd_sc_ls__decap_8
XNAND2X1 vccd1 vssd1 NAND2X1/Y input19/X input18/X NAND2X1
XFILLER_14_454 vssd1 vssd1 vccd1 vccd1 sky130_fd_sc_ls__decap_4
XFILLER_26_292 vssd1 vssd1 vccd1 vccd1 sky130_fd_sc_ls__decap_4
XFILLER_14_476 vssd1 vssd1 vccd1 vccd1 sky130_fd_sc_ls__decap_8
XFILLER_53_95 vssd1 vssd1 vccd1 vccd1 sky130_fd_sc_ls__decap_8
XFILLER_41_295 vssd1 vssd1 vccd1 vccd1 sky130_fd_sc_ls__decap_8
XFILLER_5_163 vssd1 vssd1 vccd1 vccd1 sky130_fd_sc_ls__decap_8
XFILLER_5_141 vssd1 vssd1 vccd1 vccd1 sky130_fd_sc_ls__decap_8
XANTENNA_AND2X2_B AND2X2/B vssd1 vssd1 vccd1 vccd1 sky130_fd_sc_ls__diode_2
XFILLER_49_373 vssd1 vssd1 vccd1 vccd1 sky130_fd_sc_ls__decap_4
XFILLER_37_535 vssd1 vssd1 vccd1 vccd1 sky130_fd_sc_ls__decap_4
XFILLER_37_557 vssd1 vssd1 vccd1 vccd1 sky130_fd_sc_ls__decap_8
XFILLER_64_376 vssd1 vssd1 vccd1 vccd1 sky130_fd_sc_ls__decap_8
XFILLER_52_538 vssd1 vssd1 vccd1 vccd1 sky130_fd_sc_ls__decap_8
XFILLER_32_284 vssd1 vssd1 vccd1 vccd1 sky130_fd_sc_ls__decap_8
XFILLER_20_446 vssd1 vssd1 vccd1 vccd1 sky130_fd_sc_ls__decap_8
XANTENNA_OAI22X1_B input27/X vssd1 vssd1 vccd1 vccd1 sky130_fd_sc_ls__diode_2
XFILLER_20_468 vssd1 vssd1 vccd1 vccd1 sky130_fd_sc_ls__decap_8
XFILLER_74_28 vssd1 vssd1 vccd1 vccd1 sky130_fd_sc_ls__decap_8
XFILLER_28_546 vssd1 vssd1 vccd1 vccd1 sky130_fd_sc_ls__decap_8
XFILLER_28_568 vssd1 vssd1 vccd1 vccd1 sky130_fd_sc_ls__decap_8
XFILLER_55_365 vssd1 vssd1 vccd1 vccd1 sky130_fd_sc_ls__decap_8
XFILLER_43_527 vssd1 vssd1 vccd1 vccd1 sky130_fd_sc_ls__decap_8
XFILLER_43_549 vssd1 vssd1 vccd1 vccd1 sky130_fd_sc_ls__decap_8
XFILLER_55_387 vssd1 vssd1 vccd1 vccd1 sky130_fd_sc_ls__decap_8
XFILLER_70_368 vssd1 vssd1 vccd1 vccd1 sky130_fd_sc_ls__decap_8
XFILLER_70_346 vssd1 vssd1 vccd1 vccd1 sky130_fd_sc_ls__decap_4
XFILLER_51_582 vssd1 vssd1 vccd1 vccd1 sky130_fd_sc_ls__decap_8
XFILLER_11_457 vssd1 vssd1 vccd1 vccd1 sky130_fd_sc_ls__decap_8
XFILLER_23_295 vssd1 vssd1 vccd1 vccd1 sky130_fd_sc_ls__decap_8
X_130_ vssd1 vssd1 vccd1 vccd1 _130_/HI la_data_out[76] sky130_fd_sc_ls__conb_1